[
  "D:\\MyCode\\zama\\demo\\dist-pages.less",
  "D:\\MyCode\\zama\\demo\\email-local-util.go",
  "D:\\MyCode\\zama\\demo\\adapter.css",
  "D:\\MyCode\\zama\\demo\\provider.json",
  "D:\\MyCode\\zama\\demo\\constants-pages-frontend",
  "D:\\MyCode\\zama\\demo\\constants-pages-frontend\\config-test-types.js",
  "D:\\MyCode\\zama\\demo\\constants-pages-frontend\\queries-resolver.scss",
  "D:\\MyCode\\zama\\demo\\product.java",
  "D:\\MyCode\\zama\\demo\\decorator-common-fragments.yaml",
  "D:\\MyCode\\zama\\demo\\model-dynamic-upload.jsx",
  "D:\\MyCode\\zama\\demo\\mutations.scss",
  "D:\\MyCode\\zama\\demo\\download.rs",
  "D:\\MyCode\\zama\\demo\\build-app.json",
  "D:\\MyCode\\zama\\demo\\statistics.json",
  "D:\\MyCode\\zama\\demo\\mock-download-constants",
  "D:\\MyCode\\zama\\demo\\mock-download-constants\\util-config.ini",
  "D:\\MyCode\\zama\\demo\\mock-download-constants\\core-utils-dynamic.less",
  "D:\\MyCode\\zama\\demo\\mock-download-constants\\layouts-environment.env",
  "D:\\MyCode\\zama\\demo\\frontend\\web\\src\\endpoint-adaptive.styl",
  "D:\\MyCode\\zama\\demo\\frontend\\web\\src\\analytics.ts",
  "D:\\MyCode\\zama\\demo\\frontend\\web\\src\\export-decorator.yml",
  "D:\\MyCode\\zama\\demo\\frontend\\web\\src\\constants.adoc",
  "D:\\MyCode\\zama\\demo\\frontend\\web\\src\\sms.md",
  "D:\\MyCode\\zama\\demo\\frontend\\web\\src\\gateway-example.ts",
  "D:\\MyCode\\zama\\demo\\frontend\\web\\src\\local-secure.toml",
  "D:\\MyCode\\zama\\demo\\frontend\\web\\src\\build-router-config.sass",
  "D:\\MyCode\\zama\\demo\\frontend\\web\\src\\account-user",
  "D:\\MyCode\\zama\\demo\\frontend\\web\\src\\account-user\\subscriptions.css"
]